IEEE data/162_bus/bpa/162bpa.DAT
(POWERFLOW,CASEID=162bpa,PROJECT=TEST)
/P_INPUT_LIST,FULL\
/P_OUTPUT_LIST,FULL\
/P_ANALYSIS_RPT,LEVEL=4\
/TOLERANCE,AIPOWER=0.0001,Q=0.0001\
/NEW_BASE,FILE=162bpa.bse\
/SOL_ITER,DECOUPLED=4,CURRENT=0,NEWTON=30\
/NETWORK_DATA\
.234567890*234567890*234567890*234567890*234567890*234567890*234567890*234567890
B     bus-1    100 1              -100                                                                                                                                                                                                                                                                     
B     bus-2    100 1                                                                                                                                                                                                                                                                                       
B     bus-3    100 12370.96.9             2000.                                                                                                                                                                                                                                                            
B     bus-4    100 1                                                                                                                                                                                                                                                                                       
B     bus-5    100 1              -50.                                                                                                                                                                                                                                                                     
BQ    bus-6    100 1                      794. 400. -200.1000                                                                                                                                                                                                                                              
B     bus-7    100 1                                                                                                                                                                                                                                                                                       
B     bus-8    100 1                      -398.-19.2                                                                                                                                                                                                                                                       
B     bus-9    100 1                                                                                                                                                                                                                                                                                       
B     bus-10   100 1                      -226.11.5                                                                                                                                                                                                                                                        
B     bus-11   100 1                                                                                                                                                                                                                                                                                       
B     bus-12   100 1                      -193.5.9                                                                                                                                                                                                                                                         
B     bus-13   100 1                      -204.-37.3                                                                                                                                                                                                                                                       
B     bus-14   100 1                      -381.-56.3                                                                                                                                                                                                                                                       
B     bus-15   100 11420.                 1500.5.9                                                                                                                                                                                                                                                         
B     bus-16   100 1                      54.2 -26.7                                                                                                                                                                                                                                                       
B     bus-17   100 1                      116.5-44.7                                                                                                                                                                                                                                                       
B     bus-18   100 134.4 11.67                                                                                                                                                                                                                                                                             
B     bus-19   100 1                      -64.4-3.78                                                                                                                                                                                                                                                       
B     bus-20   100 137.9 12.5                                                                                                                                                                                                                                                                              
B     bus-21   100 1                      69.8 -23.2                                                                                                                                                                                                                                                       
B     bus-22   100 117.395.27                                                                                                                                                                                                                                                                              
B     bus-23   100 1                      -63.5-21.4                                                                                                                                                                                                                                                       
B     bus-24   100 1                                                                                                                                                                                                                                                                                       
B     bus-25   100 1              -50.                                                                                                                                                                                                                                                                     
B     bus-26   100 1              -50.                                                                                                                                                                                                                                                                     
B     bus-27   100 11824.57.9             1500.                                                                                                                                                                                                                                                            
B     bus-28   100 138.4713.17                                                                                                                                                                                                                                                                             
B     bus-29   100 128.319.03                                                                                                                                                                                                                                                                              
B     bus-30   100 1101.232.52    15.                                                                                                                                                                                                                                                                      
B     bus-31   100 1                      -72.53.1                                                                                                                                                                                                                                                         
B     bus-32   100 152.7 15.06    20.                                                                                                                                                                                                                                                                      
B     bus-33   100 145.1715.06    20.          -0.1                                                                                                                                                                                                                                                        
B     bus-34   100 114.185.25     3.03                                                                                                                                                                                                                                                                     
B     bus-35   100 154.4814.63    5.                                                                                                                                                                                                                                                                       
B     bus-36   100 131.968.68     3.                                                                                                                                                                                                                                                                       
B     bus-37   100 1                                                                                                                                                                                                                                                                                       
B     bus-38   100 114.764.08     1.5                                                                                                                                                                                                                                                                      
B     bus-39   100 1                                                                                                                                                                                                                                                                                       
B     bus-40   100 152.8817.6                                                                                                                                                                                                                                                                              
B     bus-41   100 139.2 12.8                                                                                                                                                                                                                                                                              
B     bus-42   100 1                                                                                                                                                                                                                                                                                       
B     bus-43   100 1                      -41.517.2                                                                                                                                                                                                                                                        
B     bus-44   100 116.323.71     -.12                                                                                                                                                                                                                                                                     
B     bus-45   100 120.025.41     1.9                                                                                                                                                                                                                                                                      
B     bus-46   100 165.3122.3     26.2                                                                                                                                                                                                                                                                     
B     bus-47   100 14.82 1.56                                                                                                                                                                                                                                                                              
B     bus-48   100 193.7622.86            60.  29.97                                                                                                                                                                                                                                                       
B     bus-49   100 16.82 1.78                                                                                                                                                                                                                                                                              
B     bus-50   100 1                      -99.723.4                                                                                                                                                                                                                                                        
B     bus-51   100 1                                                                                                                                                                                                                                                                                       
B     bus-52   100 1218.242.8                                                                                                                                                                                                                                                                              
B     bus-53   100 1                                                                                                                                                                                                                                                                                       
B     bus-54   100 194.0429.57            23.7 9.                                                                                                                                                                                                                                                          
B     bus-55   100 1                                                                                                                                                                                                                                                                                       
B     bus-56   100 125.297.26     3.2                                                                                                                                                                                                                                                                      
B     bus-57   100 148.4815.61                 20.                                                                                                                                                                                                                                                         
B     bus-58   100 1                                                                                                                                                                                                                                                                                       
B     bus-59   100 184.4327.05                                                                                                                                                                                                                                                                             
B     bus-60   100 1              -.11    -244.-26.                                                                                                                                                                                                                                                        
B     bus-61   100 1              -.11                                                                                                                                                                                                                                                                     
B     bus-62   100 1                      865.670.8                                                                                                                                                                                                                                                        
B     bus-63   100 1                      -59.12.9                                                                                                                                                                                                                                                         
B     bus-64   100 1                                                                                                                                                                                                                                                                                       
B     bus-65   100 1                      26.3 -116.                                                                                                                                                                                                                                                       
B     bus-66   100 1              -50.                                                                                                                                                                                                                                                                     
B     bus-67   100 122.547.03     6.                                                                                                                                                                                                                                                                       
B     bus-68   100 140.4212.68    12.                                                                                                                                                                                                                                                                      
B     bus-69   100 1                                                                                                                                                                                                                                                                                       
B     bus-70   100 1                                                                                                                                                                                                                                                                                       
B     bus-71   100 129.8711.93    12.                                                                                                                                                                                                                                                                      
B     bus-72   100 1                      -427.-110.                                                                                                                                                                                                                                                       
BQ    bus-73   100 1                      447. 267. -72. 1000                                                                                                                                                                                                                                              
B     bus-74   100 1                                                                                                                                                                                                                                                                                       
B     bus-75   100 1              -50.                                                                                                                                                                                                                                                                     
BQ    bus-76   100 1                      1055.605. -170.1000                                                                                                                                                                                                                                              
B     bus-77   100 126.418.78     4.7          -0.1                                                                                                                                                                                                                                                        
B     bus-78   100 179.12                                                                                                                                                                                                                                                                                  
B     bus-79   100 1                                                                                                                                                                                                                                                                                       
B     bus-80   100 115.765.25     2.8                                                                                                                                                                                                                                                                      
B     bus-81   100 150.8816.8     22.1                                                                                                                                                                                                                                                                     
B     bus-82   100 162.2820.26    10.4                                                                                                                                                                                                                                                                     
B     bus-83   100 1                                                                                                                                                                                                                                                                                       
B     bus-84   100 137.9 9.49     2.6                                                                                                                                                                                                                                                                      
B     bus-85   100 140.5211.26    12.          -0.1                                                                                                                                                                                                                                                        
B     bus-86   100 150.7313.35    12.                                                                                                                                                                                                                                                                      
B     bus-87   100 116.914.23                                                                                                                                                                                                                                                                              
B     bus-88   100 160.6 4.44                                                                                                                                                                                                                                                                              
B     bus-89   100 1                                                                                                                                                                                                                                                                                       
B     bus-90   100 150.2116.76    10.                                                                                                                                                                                                                                                                      
B     bus-91   100 151.2412.83    -.18                                                                                                                                                                                                                                                                     
B     bus-92   100 136.129.05                                                                                                                                                                                                                                                                              
B     bus-93   100 1103.834.56    -1.7                                                                                                                                                                                                                                                                     
B     bus-94   100 1164. 6.49                                                                                                                                                                                                                                                                              
B     bus-95   100 1117.239.01    -.18                                                                                                                                                                                                                                                                     
B     bus-96   100 1119.2                                                                                                                                                                                                                                                                                  
B     bus-97   100 122.845.71     -.12                                                                                                                                                                                                                                                                     
B     bus-98   100 1151.150.35    -1.7         30.                                                                                                                                                                                                                                                         
BQ    bus-99   100 1                      130.975.6 -60.61000                                                                                                                                                                                                                                              
B     bus-100  100 123.216.9      3.                                                                                                                                                                                                                                                                       
BQ    bus-101  100 1                      82.  38.6 -24.41000                                                                                                                                                                                                                                              
B     bus-102  100 116.544.08                                                                                                                                                                                                                                                                              
B     bus-103  100 1                      -322.45.8                                                                                                                                                                                                                                                        
B     bus-104  100 131.5210.46    5.43         -0.1                                                                                                                                                                                                                                                        
B     bus-105  100 124.846.23     1.7                                                                                                                                                                                                                                                                      
B     bus-106  100 1                                                                                                                                                                                                                                                                                       
B     bus-107  100 135.415.41                                                                                                                                                                                                                                                                              
BS    bus-108  100 1                      551.19999.-99991000-27.                                                                                                                                                                                                                                          
B     bus-109  100 1                                                                                                                                                                                                                                                                                       
B     bus-110  100 1                                                                                                                                                                                                                                                                                       
B     bus-111  100 165.4116.72                                                                                                                                                                                                                                                                             
B     bus-112  100 1              -50.                                                                                                                                                                                                                                                                     
B     bus-113  100 1                      -32.795.2                                                                                                                                                                                                                                                        
BQ    bus-114  100 1                      131. 33.  -25. 1000                                                                                                                                                                                                                                              
B     bus-115  100 117.323.34                                                                                                                                                                                                                                                                              
B     bus-116  100 156.0811.2                                                                                                                                                                                                                                                                              
B     bus-117  100 1101.920.06                                                                                                                                                                                                                                                                             
BQ    bus-118  100 1                      173. 100. -44. 1000                                                                                                                                                                                                                                              
B     bus-119  100 1                                                                                                                                                                                                                                                                                       
B     bus-120  100 1                                                                                                                                                                                                                                                                                       
BQ    bus-121  100 1                      620. 250. -120.1000                                                                                                                                                                                                                                              
B     bus-122  100 147.289.36                                                                                                                                                                                                                                                                              
B     bus-123  100 1                      -165.54.67                                                                                                                                                                                                                                                       
B     bus-124  100 12000.90.9             2571.                                                                                                                                                                                                                                                            
BQ    bus-125  100 12000.                 2388.9900.-10991020                                                                                                                                                                                                                                              
B     bus-126  100 12000.                 2467.63.8                                                                                                                                                                                                                                                        
B     bus-127  100 1                      52.6 -65.                                                                                                                                                                                                                                                        
B     bus-128  100 1                                                                                                                                                                                                                                                                                       
B     bus-129  100 1                                                                                                                                                                                                                                                                                       
BQ    bus-130  100 1                      455. 288. -144.1030                                                                                                                                                                                                                                              
BQ    bus-131  100 1                      575. 320. -265.1018                                                                                                                                                                                                                                              
B     bus-132  100 1                      -159.-36.1                                                                                                                                                                                                                                                       
B     bus-133  100 130.1 6.02                                                                                                                                                                                                                                                                              
B     bus-134  100 117.463.34                                                                                                                                                                                                                                                                              
B     bus-135  100 120.064.01                                                                                                                                                                                                                                                                              
B     bus-136  100 120.064.01                                                                                                                                                                                                                                                                              
B     bus-137  100 120.064.01                                                                                                                                                                                                                                                                              
B     bus-138  100 1                                                                                                                                                                                                                                                                                       
B     bus-139  100 110.1 2.01                                                                                                                                                                                                                                                                              
B     bus-140  100 113.582.68                                                                                                                                                                                                                                                                              
B     bus-141  100 1                                                                                                                                                                                                                                                                                       
B     bus-142  100 127.095.35                                                                                                                                                                                                                                                                              
B     bus-143  100 121.074.01                                                                                                                                                                                                                                                                              
B     bus-144  100 112.372.01                                                                                                                                                                                                                                                                              
B     bus-145  100 110.832.21                                                                                                                                                                                                                                                                              
B     bus-146  100 121.334.01                                                                                                                                                                                                                                                                              
B     bus-147  100 1216.442.8                                                                                                                                                                                                                                                                              
B     bus-148  100 1120. 24.                                                                                                                                                                                                                                                                               
B     bus-149  100 1                                                                                                                                                                                                                                                                                       
B     bus-150  100 14.8  1.6                                                                                                                                                                                                                                                                               
B     bus-151  100 124.  8.                                                                                                                                                                                                                                                                                
B     bus-152  100 1                      -6.  2.8                                                                                                                                                                                                                                                         
B     bus-153  100 14.   1.6                                                                                                                                                                                                                                                                               
B     bus-154  100 128.  9.6      6.                                                                                                                                                                                                                                                                       
B     bus-155  100 112.  4.                                                                                                                                                                                                                                                                                
B     bus-156  100 18.   2.4                                                                                                                                                                                                                                                                               
B     bus-157  100 132.  10.4                                                                                                                                                                                                                                                                              
B     bus-158  100 116.  5.6      3.                                                                                                                                                                                                                                                                       
B     bus-159  100 18.   2.4                                                                                                                                                                                                                                                                               
B     bus-160  100 114.4 4.8      3.                                                                                                                                                                                                                                                                       
B     bus-161  100 132.  10.4                                                                                                                                                                                                                                                                              
B     bus-162  100 120.  6.4                                                                                                                                                                                                                                                                               
-999
.234567890*234567890*234567890*234567890*234567890*234567890*234567890*234567890
.234567890*234567890*234567890*234567890*234567890*234567890*234567890*234567890
L     bus-1    100 bus-2    100       .0035 .0321       .2719                                                                                                                                                                                                                                              
L     bus-1    100 bus-3    100       .0034 .0326       .3612                                                                                                                                                                                                                                              
L     bus-1    100 bus-4    100       .0064 .0621       .4935                                                                                                                                                                                                                                              
L     bus-1    100 bus-5    100       .0011 .0119       .1006                                                                                                                                                                                                                                              
L     bus-2    100 bus-7    100       .0014 .0125       .1061                                                                                                                                                                                                                                              
L     bus-2    100 bus-13   100       .0046 .0417       .3529                                                                                                                                                                                                                                              
L     bus-3    100 bus-14   100       .2361 101220                                                                                                                                                                                                                                                         
L     bus-3    100 bus-50   100       .0389 .1699                                                                                                                                                                                                                                                          
L     bus-3    100 bus-103  100       .1074 180230                                                                                                                                                                                                                                                         
L     bus-3    100 bus-123  100       .2883 167190                                                                                                                                                                                                                                                         
L     bus-3    100 bus-124  100       .014  .6483                                                                                                                                                                                                                                                          
L     bus-3    100 bus-125  100       .0084 .1139                                                                                                                                                                                                                                                          
L     bus-4    100 bus-112  100       .0059 .0568       .4625                                                                                                                                                                                                                                              
L     bus-4    100 bus-119  100       .0014 .0119       .1025                                                                                                                                                                                                                                              
L     bus-5    100 bus-120  100       .0022 .0224       .1896                                                                                                                                                                                                                                              
L     bus-5    100 bus-129  100       .0022 .0268       .2306                                                                                                                                                                                                                                              
L     bus-7    100 bus-9    100       .0017 .0169       .1436                                                                                                                                                                                                                                              
L     bus-8    100 bus-10   100       .4591 107030                                                                                                                                                                                                                                                         
L     bus-8    100 bus-12   100       .0106 .0574                                                                                                                                                                                                                                                          
L     bus-8    100 bus-13   100       .1274 .4784                                                                                                                                                                                                                                                          
L     bus-8    100 bus-14   100       .0473 .3956                                                                                                                                                                                                                                                          
L     bus-8    100 bus-15   100       .5035 174330                                                                                                                                                                                                                                                         
L     bus-8    100 bus-132  100       .0252 .288                                                                                                                                                                                                                                                           
L     bus-9    100 bus-75   100       .0013 .015        .1341                                                                                                                                                                                                                                              
L     bus-10   100 bus-11   100       .0051 .037        .0358                                                                                                                                                                                                                                              
L     bus-10   100 bus-13   100       .1299 .622                                                                                                                                                                                                                                                           
L     bus-10   100 bus-15   100       .1275 .7033                                                                                                                                                                                                                                                          
L     bus-10   100 bus-60   100       .2525 122420                                                                                                                                                                                                                                                         
L     bus-11   100 bus-15   100       .0285 .1793       .1742                                                                                                                                                                                                                                              
L     bus-11   100 bus-46   100       .0142 .1225       .0938                                                                                                                                                                                                                                              
L     bus-11   100 bus-58   100       .017  .107        .1037                                                                                                                                                                                                                                              
L     bus-11   100 bus-59   100       .0071 .0471       .0426                                                                                                                                                                                                                                              
L     bus-12   100 bus-13   100       .1038 .3137                                                                                                                                                                                                                                                          
L     bus-12   100 bus-14   100       .1598 .6415                                                                                                                                                                                                                                                          
L     bus-12   100 bus-132  100       .4486 157730                                                                                                                                                                                                                                                         
L     bus-13   100 bus-15   100       .044  .3227                                                                                                                                                                                                                                                          
...